
     RDKit          3D

 51 54  0  0  0  0  0  0  0  0999 V2000
    5.6269    1.2660    0.4316 C   0  0  0  0  0  0  0  0  0  0  0  0
    6.8198    1.9768    0.2663 C   0  0  0  0  0  0  0  0  0  0  0  0
    7.7581    1.5303   -0.6566 C   0  0  0  0  0  0  0  0  0  0  0  0
    7.5216    0.3913   -1.4151 C   0  0  0  0  0  0  0  0  0  0  0  0
    6.3294   -0.3183   -1.2486 C   0  0  0  0  0  0  0  0  0  0  0  0
    5.3690    0.1056   -0.3166 C   0  0  0  0  0  0  0  0  0  0  0  0
    4.0991   -0.6232   -0.1318 C   0  0  0  0  0  0  0  0  0  0  0  0
    4.0603   -1.9620   -0.0599 C   0  0  0  0  0  0  0  0  0  0  0  0
    2.7642   -2.6267    0.1346 C   0  0  0  0  0  0  0  0  0  0  0  0
    2.6690   -3.8469    0.2068 O   0  0  0  0  0  0  0  0  0  0  0  0
    1.5812   -1.7659    0.2391 C   0  0  0  0  0  0  0  0  0  0  0  0
    0.2999   -2.2922    0.4162 C   0  0  0  0  0  0  0  0  0  0  0  0
   -0.8049   -1.4447    0.5098 C   0  0  0  0  0  0  0  0  0  0  0  0
   -0.6321   -0.0614    0.4320 C   0  0  0  0  0  0  0  0  0  0  0  0
    0.6543    0.4607    0.2523 C   0  0  0  0  0  0  0  0  0  0  0  0
    1.7572   -0.3896    0.1564 C   0  0  0  0  0  0  0  0  0  0  0  0
    2.9860    0.1966   -0.0167 O   0  0  0  0  0  0  0  0  0  0  0  0
   -1.6194    0.8813    0.5113 O   0  0  0  0  0  0  0  0  0  0  0  0
   -2.9621    0.4340    0.7593 C   0  0  1  0  0  0  0  0  0  0  0  0
   -3.7840    1.6997    1.0693 C   0  0  1  0  0  0  0  0  0  0  0  0
   -5.2422    1.3142    1.2984 C   0  0  2  0  0  0  0  0  0  0  0  0
   -5.7897    0.5050    0.1211 C   0  0  1  0  0  0  0  0  0  0  0  0
   -4.8555   -0.6763   -0.1832 C   0  0  2  0  0  0  0  0  0  0  0  0
   -3.5026   -0.2268   -0.3858 O   0  0  0  0  0  0  0  0  0  0  0  0
   -5.2777   -1.4164   -1.4589 C   0  0  0  0  0  0  0  0  0  0  0  0
   -5.0670   -0.5904   -2.6058 O   0  0  0  0  0  0  0  0  0  0  0  0
   -7.0982    0.0376    0.4626 O   0  0  0  0  0  0  0  0  0  0  0  0
   -6.0458    2.4917    1.4762 O   0  0  0  0  0  0  0  0  0  0  0  0
   -3.3043    2.3759    2.2439 O   0  0  0  0  0  0  0  0  0  0  0  0
    0.0532   -3.6361    0.5069 O   0  0  0  0  0  0  0  0  0  0  0  0
    8.9340    2.1903   -0.8524 O   0  0  0  0  0  0  0  0  0  0  0  0
    4.8996    1.6236    1.1578 H   0  0  0  0  0  0  0  0  0  0  0  0
    6.9939    2.8676    0.8615 H   0  0  0  0  0  0  0  0  0  0  0  0
    8.2605    0.0579   -2.1386 H   0  0  0  0  0  0  0  0  0  0  0  0
    6.1586   -1.1968   -1.8667 H   0  0  0  0  0  0  0  0  0  0  0  0
    4.9323   -2.5997   -0.1263 H   0  0  0  0  0  0  0  0  0  0  0  0
   -1.7820   -1.9006    0.6307 H   0  0  0  0  0  0  0  0  0  0  0  0
    0.7965    1.5365    0.1821 H   0  0  0  0  0  0  0  0  0  0  0  0
   -2.9682   -0.2266    1.6375 H   0  0  0  0  0  0  0  0  0  0  0  0
   -3.7123    2.4195    0.2444 H   0  0  0  0  0  0  0  0  0  0  0  0
   -5.3463    0.7452    2.2311 H   0  0  0  0  0  0  0  0  0  0  0  0
   -5.8905    1.1595   -0.7533 H   0  0  0  0  0  0  0  0  0  0  0  0
   -4.8767   -1.3964    0.6453 H   0  0  0  0  0  0  0  0  0  0  0  0
   -4.6632   -2.3127   -1.5951 H   0  0  0  0  0  0  0  0  0  0  0  0
   -6.3283   -1.7191   -1.4301 H   0  0  0  0  0  0  0  0  0  0  0  0
   -4.1359   -0.3013   -2.5502 H   0  0  0  0  0  0  0  0  0  0  0  0
   -7.5922    0.8380    0.7339 H   0  0  0  0  0  0  0  0  0  0  0  0
   -5.5611    3.0370    2.1286 H   0  0  0  0  0  0  0  0  0  0  0  0
   -2.3531    2.5395    2.0904 H   0  0  0  0  0  0  0  0  0  0  0  0
    0.9097   -4.1137    0.4194 H   0  0  0  0  0  0  0  0  0  0  0  0
    8.9607    2.9626   -0.2640 H   0  0  0  0  0  0  0  0  0  0  0  0
  1  2  2  0
  2  3  1  0
  3  4  2  0
  4  5  1  0
  5  6  2  0
  6  7  1  0
  7  8  2  0
  8  9  1  0
  9 10  2  0
  9 11  1  0
 11 12  2  0
 12 13  1  0
 13 14  2  0
 14 15  1  0
 15 16  2  0
 16 17  1  0
 14 18  1  0
 18 19  1  0
 19 20  1  0
 20 21  1  0
 21 22  1  0
 22 23  1  0
 23 24  1  0
 23 25  1  0
 25 26  1  0
 22 27  1  0
 21 28  1  0
 20 29  1  0
 12 30  1  0
  3 31  1  0
  6  1  1  0
 17  7  1  0
 16 11  1  0
 24 19  1  0
  1 32  1  0
  2 33  1  0
  4 34  1  0
  5 35  1  0
  8 36  1  0
 13 37  1  0
 15 38  1  0
 19 39  1  1
 20 40  1  6
 21 41  1  1
 22 42  1  6
 23 43  1  1
 25 44  1  0
 25 45  1  0
 26 46  1  0
 27 47  1  0
 28 48  1  0
 29 49  1  0
 30 50  1  0
 31 51  1  0
M  END
$$$$
