
     RDKit          3D

 21 21  0  0  0  0  0  0  0  0999 V2000
    3.2434   -0.9453   -0.6940 C   0  0  0  0  0  0  0  0  0  0  0  0
    1.9528   -0.1832   -0.7348 C   0  0  0  0  0  0  0  0  0  0  0  0
    1.5280    0.4067   -1.7200 O   0  0  0  0  0  0  0  0  0  0  0  0
    1.3552   -0.2431    0.5193 O   0  0  0  0  0  0  0  0  0  0  0  0
    0.0979    0.3677    0.5449 C   0  0  0  0  0  0  0  0  0  0  0  0
    0.0387    1.6645    1.0654 C   0  0  0  0  0  0  0  0  0  0  0  0
   -1.1884    2.3200    1.1459 C   0  0  0  0  0  0  0  0  0  0  0  0
   -2.3503    1.6775    0.7196 C   0  0  0  0  0  0  0  0  0  0  0  0
   -2.2901    0.3734    0.2172 C   0  0  0  0  0  0  0  0  0  0  0  0
   -1.0625   -0.3018    0.1303 C   0  0  0  0  0  0  0  0  0  0  0  0
   -0.9950   -1.6982   -0.3755 C   0  0  0  0  0  0  0  0  0  0  0  0
   -0.0126   -2.4152   -0.4245 O   0  0  0  0  0  0  0  0  0  0  0  0
   -2.1893   -2.1503   -0.8043 O   0  0  0  0  0  0  0  0  0  0  0  0
    3.9367   -0.4619   -0.0015 H   0  0  0  0  0  0  0  0  0  0  0  0
    3.6905   -0.9529   -1.6921 H   0  0  0  0  0  0  0  0  0  0  0  0
    3.0553   -1.9789   -0.3926 H   0  0  0  0  0  0  0  0  0  0  0  0
    0.9444    2.1639    1.3980 H   0  0  0  0  0  0  0  0  0  0  0  0
   -1.2395    3.3325    1.5389 H   0  0  0  0  0  0  0  0  0  0  0  0
   -3.3076    2.1904    0.7800 H   0  0  0  0  0  0  0  0  0  0  0  0
   -3.2122   -0.1076   -0.1013 H   0  0  0  0  0  0  0  0  0  0  0  0
   -1.9953   -3.0581   -1.1191 H   0  0  0  0  0  0  0  0  0  0  0  0
  1  2  1  0
  2  3  2  0
  2  4  1  0
  4  5  1  0
  5  6  2  0
  6  7  1  0
  7  8  2  0
  8  9  1  0
  9 10  2  0
 10 11  1  0
 11 12  2  0
 11 13  1  0
 10  5  1  0
  1 14  1  0
  1 15  1  0
  1 16  1  0
  6 17  1  0
  7 18  1  0
  8 19  1  0
  9 20  1  0
 13 21  1  0
M  END
$$$$
