
     RDKit          3D

 21 21  0  0  0  0  0  0  0  0999 V2000
    0.8215   -1.3410   -0.6525 C   0  0  0  0  0  0  0  0  0  0  0  0
    2.2075   -1.1544   -0.7156 C   0  0  0  0  0  0  0  0  0  0  0  0
    2.7563    0.0077   -0.1920 C   0  0  0  0  0  0  0  0  0  0  0  0
    1.9361    0.9689    0.3911 C   0  0  0  0  0  0  0  0  0  0  0  0
    0.5597    0.7908    0.4576 C   0  0  0  0  0  0  0  0  0  0  0  0
   -0.0167   -0.3681   -0.0794 C   0  0  0  0  0  0  0  0  0  0  0  0
   -1.4615   -0.6321   -0.0189 C   0  0  0  0  0  0  0  0  0  0  0  0
   -2.4053    0.3190   -0.0852 C   0  0  0  0  0  0  0  0  0  0  0  0
   -3.8224   -0.0602   -0.0287 C   0  0  0  0  0  0  0  0  0  0  0  0
   -4.2874   -1.1795    0.0644 O   0  0  0  0  0  0  0  0  0  0  0  0
   -4.5961    1.0344   -0.0961 O   0  0  0  0  0  0  0  0  0  0  0  0
    2.4852    2.1060    0.9129 O   0  0  0  0  0  0  0  0  0  0  0  0
    4.1011    0.2510   -0.2211 O   0  0  0  0  0  0  0  0  0  0  0  0
    0.3967   -2.2549   -1.0644 H   0  0  0  0  0  0  0  0  0  0  0  0
    2.8272   -1.9202   -1.1703 H   0  0  0  0  0  0  0  0  0  0  0  0
   -0.0430    1.5551    0.9387 H   0  0  0  0  0  0  0  0  0  0  0  0
   -1.7504   -1.6789    0.0660 H   0  0  0  0  0  0  0  0  0  0  0  0
   -2.1819    1.3727   -0.1925 H   0  0  0  0  0  0  0  0  0  0  0  0
   -5.5082    0.6799   -0.0492 H   0  0  0  0  0  0  0  0  0  0  0  0
    3.4457    2.0079    0.7565 H   0  0  0  0  0  0  0  0  0  0  0  0
    4.5359   -0.5042   -0.6532 H   0  0  0  0  0  0  0  0  0  0  0  0
  1  2  2  0
  2  3  1  0
  3  4  2  0
  4  5  1  0
  5  6  2  0
  6  7  1  0
  7  8  2  0
  8  9  1  0
  9 10  2  0
  9 11  1  0
  4 12  1  0
  3 13  1  0
  6  1  1  0
  1 14  1  0
  2 15  1  0
  5 16  1  0
  7 17  1  0
  8 18  1  0
 11 19  1  0
 12 20  1  0
 13 21  1  0
M  END
$$$$
