
     RDKit          3D

 40 42  0  0  0  0  0  0  0  0999 V2000
    3.2390    3.8820    2.0377 C   0  0  0  0  0  0  0  0  0  0  0  0
    2.7815    2.5647    1.4842 C   0  0  0  0  0  0  0  0  0  0  0  0
    1.9734    1.7169    2.2503 C   0  0  0  0  0  0  0  0  0  0  0  0
    1.5725    0.4761    1.7486 C   0  0  0  0  0  0  0  0  0  0  0  0
    1.9735    0.0661    0.4714 C   0  0  0  0  0  0  0  0  0  0  0  0
    2.8078    0.8992   -0.2823 C   0  0  0  0  0  0  0  0  0  0  0  0
    3.2083    2.1398    0.2208 C   0  0  0  0  0  0  0  0  0  0  0  0
    1.5682   -1.2349   -0.0512 C   0  0  0  0  0  0  0  0  0  0  0  0
    2.3954   -2.3122   -0.3108 C   0  0  0  0  0  0  0  0  0  0  0  0
    1.5501   -3.3946   -0.6308 C   0  0  0  0  0  0  0  0  0  0  0  0
    0.2625   -3.0173   -0.5839 N   0  0  0  0  0  0  0  0  0  0  0  0
    0.2710   -1.6791   -0.3141 N   0  0  0  0  0  0  0  0  0  0  0  0
   -0.9722   -0.9681   -0.3585 C   0  0  0  0  0  0  0  0  0  0  0  0
   -1.0376    0.4307   -0.4186 C   0  0  0  0  0  0  0  0  0  0  0  0
   -2.2761    1.0825   -0.4635 C   0  0  0  0  0  0  0  0  0  0  0  0
   -3.4555    0.3360   -0.4685 C   0  0  0  0  0  0  0  0  0  0  0  0
   -3.4109   -1.0568   -0.4168 C   0  0  0  0  0  0  0  0  0  0  0  0
   -2.1729   -1.7045   -0.3729 C   0  0  0  0  0  0  0  0  0  0  0  0
   -5.0188    1.1616   -0.4932 S   0  0  0  0  0  0  0  0  0  0  0  0
   -6.0205    0.3009    0.0907 O   0  0  0  0  0  0  0  0  0  0  0  0
   -4.8391    2.5334   -0.0783 O   0  0  0  0  0  0  0  0  0  0  0  0
   -5.3555    1.2181   -2.1365 N   0  0  0  0  0  0  0  0  0  0  0  0
    1.9746   -4.8019   -0.9538 C   0  0  0  0  0  0  0  0  0  0  0  0
    3.3313   -4.9295   -0.9620 F   0  0  0  0  0  0  0  0  0  0  0  0
    1.5114   -5.7056   -0.0502 F   0  0  0  0  0  0  0  0  0  0  0  0
    1.5464   -5.2062   -2.1791 F   0  0  0  0  0  0  0  0  0  0  0  0
    4.1782    3.7522    2.5843 H   0  0  0  0  0  0  0  0  0  0  0  0
    3.3940    4.6102    1.2347 H   0  0  0  0  0  0  0  0  0  0  0  0
    2.4891    4.3019    2.7163 H   0  0  0  0  0  0  0  0  0  0  0  0
    1.6522    2.0159    3.2460 H   0  0  0  0  0  0  0  0  0  0  0  0
    0.9479   -0.1666    2.3654 H   0  0  0  0  0  0  0  0  0  0  0  0
    3.1490    0.5926   -1.2686 H   0  0  0  0  0  0  0  0  0  0  0  0
    3.8579    2.7725   -0.3803 H   0  0  0  0  0  0  0  0  0  0  0  0
    3.4745   -2.3288   -0.2225 H   0  0  0  0  0  0  0  0  0  0  0  0
   -0.1524    1.0551   -0.4656 H   0  0  0  0  0  0  0  0  0  0  0  0
   -2.3073    2.1697   -0.5034 H   0  0  0  0  0  0  0  0  0  0  0  0
   -4.3260   -1.6449   -0.4104 H   0  0  0  0  0  0  0  0  0  0  0  0
   -2.1624   -2.7934   -0.3346 H   0  0  0  0  0  0  0  0  0  0  0  0
   -5.4050    2.1887   -2.4470 H   0  0  0  0  0  0  0  0  0  0  0  0
   -6.1976    0.6777   -2.3363 H   0  0  0  0  0  0  0  0  0  0  0  0
  1  2  1  0
  2  3  2  0
  3  4  1  0
  4  5  2  0
  5  6  1  0
  6  7  2  0
  5  8  1  0
  8  9  2  0
  9 10  1  0
 10 11  2  0
 11 12  1  0
 12 13  1  0
 13 14  2  0
 14 15  1  0
 15 16  2  0
 16 17  1  0
 17 18  2  0
 16 19  1  0
 19 20  2  0
 19 21  2  0
 19 22  1  0
 10 23  1  0
 23 24  1  0
 23 25  1  0
 23 26  1  0
  7  2  1  0
 12  8  1  0
 18 13  1  0
  1 27  1  0
  1 28  1  0
  1 29  1  0
  3 30  1  0
  4 31  1  0
  6 32  1  0
  7 33  1  0
  9 34  1  0
 14 35  1  0
 15 36  1  0
 17 37  1  0
 18 38  1  0
 22 39  1  0
 22 40  1  0
M  END
$$$$
