
     RDKit          3D

 32 32  0  0  0  0  0  0  0  0999 V2000
   -0.9831   -0.2169   -1.1736 C   0  0  0  0  0  0  0  0  0  0  0  0
   -0.5995    1.2101   -1.5792 C   0  0  0  0  0  0  0  0  0  0  0  0
    0.7933    1.3260   -2.2131 C   0  0  0  0  0  0  0  0  0  0  0  0
    1.9632    0.8994   -1.3138 C   0  0  0  0  0  0  0  0  0  0  0  0
    2.1111    1.7316   -0.0295 C   0  0  0  0  0  0  0  0  0  0  0  0
    2.5028    0.8888    1.1885 C   0  0  0  0  0  0  0  0  0  0  0  0
    1.3868    0.0440    1.6492 C   0  0  0  0  0  0  0  0  0  0  0  0
    0.4686   -0.6517    1.9930 C   0  0  0  0  0  0  0  0  0  0  0  0
   -0.6528   -1.5204    2.3892 C   0  0  0  0  0  0  0  0  0  0  0  0
   -1.2456   -2.2966    1.2073 C   0  0  0  0  0  0  0  0  0  0  0  0
   -2.3929   -1.5903    0.4663 C   0  0  0  0  0  0  0  0  0  0  0  0
   -2.0886   -0.2085   -0.1152 C   0  0  0  0  0  0  0  0  0  0  0  0
   -1.3182   -0.7710   -2.0586 H   0  0  0  0  0  0  0  0  0  0  0  0
   -0.1162   -0.7533   -0.7893 H   0  0  0  0  0  0  0  0  0  0  0  0
   -0.6643    1.8806   -0.7162 H   0  0  0  0  0  0  0  0  0  0  0  0
   -1.3428    1.5800   -2.2969 H   0  0  0  0  0  0  0  0  0  0  0  0
    0.9487    2.3664   -2.5244 H   0  0  0  0  0  0  0  0  0  0  0  0
    0.8177    0.7204   -3.1274 H   0  0  0  0  0  0  0  0  0  0  0  0
    1.8883   -0.1694   -1.0902 H   0  0  0  0  0  0  0  0  0  0  0  0
    2.8900    1.0023   -1.8936 H   0  0  0  0  0  0  0  0  0  0  0  0
    1.2027    2.2966    0.2007 H   0  0  0  0  0  0  0  0  0  0  0  0
    2.8947    2.4811   -0.1995 H   0  0  0  0  0  0  0  0  0  0  0  0
    3.3756    0.2690    0.9537 H   0  0  0  0  0  0  0  0  0  0  0  0
    2.7981    1.5604    2.0032 H   0  0  0  0  0  0  0  0  0  0  0  0
   -1.4295   -0.9387    2.8976 H   0  0  0  0  0  0  0  0  0  0  0  0
   -0.2731   -2.2437    3.1216 H   0  0  0  0  0  0  0  0  0  0  0  0
   -1.6614   -3.2338    1.6010 H   0  0  0  0  0  0  0  0  0  0  0  0
   -0.4615   -2.5924    0.5001 H   0  0  0  0  0  0  0  0  0  0  0  0
   -2.7374   -2.2478   -0.3417 H   0  0  0  0  0  0  0  0  0  0  0  0
   -3.2391   -1.4888    1.1578 H   0  0  0  0  0  0  0  0  0  0  0  0
   -1.8299    0.4764    0.7003 H   0  0  0  0  0  0  0  0  0  0  0  0
   -3.0057    0.1900   -0.5671 H   0  0  0  0  0  0  0  0  0  0  0  0
  1  2  1  0
  2  3  1  0
  3  4  1  0
  4  5  1  0
  5  6  1  0
  6  7  1  0
  7  8  3  0
  8  9  1  0
  9 10  1  0
 10 11  1  0
 11 12  1  0
 12  1  1  0
  1 13  1  0
  1 14  1  0
  2 15  1  0
  2 16  1  0
  3 17  1  0
  3 18  1  0
  4 19  1  0
  4 20  1  0
  5 21  1  0
  5 22  1  0
  6 23  1  0
  6 24  1  0
  9 25  1  0
  9 26  1  0
 10 27  1  0
 10 28  1  0
 11 29  1  0
 11 30  1  0
 12 31  1  0
 12 32  1  0
M  END
$$$$
