
     RDKit          3D

 30 31  0  0  0  0  0  0  0  0999 V2000
   -2.3612    2.7451    0.6710 C   0  0  0  0  0  0  0  0  0  0  0  0
   -1.0796    2.9647    0.1786 C   0  0  0  0  0  0  0  0  0  0  0  0
   -0.2313    1.8836   -0.0651 C   0  0  0  0  0  0  0  0  0  0  0  0
   -0.6463    0.5684    0.1947 C   0  0  0  0  0  0  0  0  0  0  0  0
   -1.9526    0.3452    0.6809 C   0  0  0  0  0  0  0  0  0  0  0  0
   -2.7970    1.4444    0.9193 C   0  0  0  0  0  0  0  0  0  0  0  0
   -2.4534   -1.0501    0.9937 C   0  0  0  0  0  0  0  0  0  0  0  0
   -2.6240   -1.9351   -0.2167 C   0  0  0  0  0  0  0  0  0  0  0  0
   -2.1106   -1.8136   -1.3180 O   0  0  0  0  0  0  0  0  0  0  0  0
   -3.4197   -2.9966    0.0390 O   0  0  0  0  0  0  0  0  0  0  0  0
    0.1790   -0.5492   -0.1185 N   0  0  0  0  0  0  0  0  0  0  0  0
    1.5974   -0.5274   -0.2612 C   0  0  0  0  0  0  0  0  0  0  0  0
    2.1904   -0.8991   -1.4859 C   0  0  0  0  0  0  0  0  0  0  0  0
    3.5770   -0.8642   -1.6668 C   0  0  0  0  0  0  0  0  0  0  0  0
    4.4054   -0.4615   -0.6233 C   0  0  0  0  0  0  0  0  0  0  0  0
    3.8467   -0.1034    0.6019 C   0  0  0  0  0  0  0  0  0  0  0  0
    2.4579   -0.1383    0.7862 C   0  0  0  0  0  0  0  0  0  0  0  0
    1.8702    0.2551    2.3675 Cl  0  0  0  0  0  0  0  0  0  0  0  0
    1.2160   -1.4041   -2.8247 Cl  0  0  0  0  0  0  0  0  0  0  0  0
   -3.0227    3.5864    0.8606 H   0  0  0  0  0  0  0  0  0  0  0  0
   -0.7390    3.9766   -0.0234 H   0  0  0  0  0  0  0  0  0  0  0  0
    0.7562    2.0825   -0.4715 H   0  0  0  0  0  0  0  0  0  0  0  0
   -3.8027    1.2945    1.3060 H   0  0  0  0  0  0  0  0  0  0  0  0
   -3.4249   -0.9827    1.4987 H   0  0  0  0  0  0  0  0  0  0  0  0
   -1.7603   -1.5378    1.6890 H   0  0  0  0  0  0  0  0  0  0  0  0
   -3.4267   -3.4945   -0.8055 H   0  0  0  0  0  0  0  0  0  0  0  0
   -0.2408   -0.9994   -0.9455 H   0  0  0  0  0  0  0  0  0  0  0  0
    4.0138   -1.1497   -2.6209 H   0  0  0  0  0  0  0  0  0  0  0  0
    5.4838   -0.4346   -0.7602 H   0  0  0  0  0  0  0  0  0  0  0  0
    4.4989    0.1948    1.4199 H   0  0  0  0  0  0  0  0  0  0  0  0
  1  2  2  0
  2  3  1  0
  3  4  2  0
  4  5  1  0
  5  6  2  0
  5  7  1  0
  7  8  1  0
  8  9  2  0
  8 10  1  0
  4 11  1  0
 11 12  1  0
 12 13  2  0
 13 14  1  0
 14 15  2  0
 15 16  1  0
 16 17  2  0
 17 18  1  0
 13 19  1  0
  6  1  1  0
 17 12  1  0
  1 20  1  0
  2 21  1  0
  3 22  1  0
  6 23  1  0
  7 24  1  0
  7 25  1  0
 10 26  1  0
 11 27  1  0
 14 28  1  0
 15 29  1  0
 16 30  1  0
M  END
$$$$
