
     RDKit          3D

 24 24  0  0  0  0  0  0  0  0999 V2000
    3.1826    0.8626   -1.7486 C   0  0  0  0  0  0  0  0  0  0  0  0
    3.1427    0.7436   -0.3311 O   0  0  0  0  0  0  0  0  0  0  0  0
    1.9467    0.3608    0.2204 C   0  0  0  0  0  0  0  0  0  0  0  0
    1.9479    0.2554    1.6150 C   0  0  0  0  0  0  0  0  0  0  0  0
    0.8131   -0.1276    2.3158 C   0  0  0  0  0  0  0  0  0  0  0  0
   -0.3593   -0.4100    1.6147 C   0  0  0  0  0  0  0  0  0  0  0  0
   -0.3967   -0.2982    0.2169 C   0  0  0  0  0  0  0  0  0  0  0  0
    0.7695    0.0761   -0.4748 C   0  0  0  0  0  0  0  0  0  0  0  0
   -1.6045   -0.6135   -0.5594 C   0  0  0  0  0  0  0  0  0  0  0  0
   -2.8515   -0.3311   -0.1535 C   0  0  0  0  0  0  0  0  0  0  0  0
   -3.9898   -0.6751   -1.0142 C   0  0  0  0  0  0  0  0  0  0  0  0
   -3.9581   -1.1955   -2.1123 O   0  0  0  0  0  0  0  0  0  0  0  0
   -5.1407   -0.3297   -0.4163 O   0  0  0  0  0  0  0  0  0  0  0  0
    3.0853    0.5265    2.3258 O   0  0  0  0  0  0  0  0  0  0  0  0
    2.4884    1.6333   -2.0995 H   0  0  0  0  0  0  0  0  0  0  0  0
    2.9839   -0.1001   -2.2310 H   0  0  0  0  0  0  0  0  0  0  0  0
    4.1937    1.1730   -2.0290 H   0  0  0  0  0  0  0  0  0  0  0  0
    0.8436   -0.2114    3.3980 H   0  0  0  0  0  0  0  0  0  0  0  0
   -1.2352   -0.7289    2.1743 H   0  0  0  0  0  0  0  0  0  0  0  0
    0.7305    0.1462   -1.5573 H   0  0  0  0  0  0  0  0  0  0  0  0
   -1.4394   -1.0856   -1.5270 H   0  0  0  0  0  0  0  0  0  0  0  0
   -3.0744    0.1584    0.7860 H   0  0  0  0  0  0  0  0  0  0  0  0
   -5.8291   -0.5969   -1.0602 H   0  0  0  0  0  0  0  0  0  0  0  0
    3.7508    0.7678    1.6525 H   0  0  0  0  0  0  0  0  0  0  0  0
  1  2  1  0
  2  3  1  0
  3  4  2  0
  4  5  1  0
  5  6  2  0
  6  7  1  0
  7  8  2  0
  7  9  1  0
  9 10  2  0
 10 11  1  0
 11 12  2  0
 11 13  1  0
  4 14  1  0
  8  3  1  0
  1 15  1  0
  1 16  1  0
  1 17  1  0
  5 18  1  0
  6 19  1  0
  8 20  1  0
  9 21  1  0
 10 22  1  0
 13 23  1  0
 14 24  1  0
M  END
$$$$
