
     RDKit          3D

 50 49  0  0  0  0  0  0  0  0999 V2000
    8.6305    0.5926   -1.3307 C   0  0  0  0  0  0  0  0  0  0  0  0
    7.1521    0.3175   -1.5546 C   0  0  0  0  0  0  0  0  0  0  0  0
    6.4075    0.1464   -0.2308 C   0  0  0  0  0  0  0  0  0  0  0  0
    4.9208   -0.1301   -0.4605 C   0  0  0  0  0  0  0  0  0  0  0  0
    4.1755   -0.3013    0.8643 C   0  0  0  0  0  0  0  0  0  0  0  0
    2.6880   -0.5784    0.6345 C   0  0  0  0  0  0  0  0  0  0  0  0
    1.9444   -0.7451    1.9615 C   0  0  0  0  0  0  0  0  0  0  0  0
    0.4741   -1.1377    1.7907 C   0  0  0  0  0  0  0  0  0  0  0  0
   -0.3732   -0.0497    1.1274 C   0  0  0  0  0  0  0  0  0  0  0  0
   -1.8508   -0.4463    1.0870 C   0  0  0  0  0  0  0  0  0  0  0  0
   -2.6999    0.6376    0.4206 C   0  0  0  0  0  0  0  0  0  0  0  0
   -4.1776    0.2414    0.3810 C   0  0  0  0  0  0  0  0  0  0  0  0
   -5.0238    1.3257   -0.2897 C   0  0  0  0  0  0  0  0  0  0  0  0
   -6.5257    1.0307   -0.2577 C   0  0  0  0  0  0  0  0  0  0  0  0
   -6.9209   -0.1976   -1.0763 C   0  0  0  0  0  0  0  0  0  0  0  0
   -8.4153   -0.3698   -1.1307 C   0  0  0  0  0  0  0  0  0  0  0  0
   -9.2626    0.2897   -0.5546 O   0  0  0  0  0  0  0  0  0  0  0  0
   -8.7721   -1.4002   -1.9232 O   0  0  0  0  0  0  0  0  0  0  0  0
    9.1059   -0.2329   -0.7914 H   0  0  0  0  0  0  0  0  0  0  0  0
    8.7756    1.5103   -0.7518 H   0  0  0  0  0  0  0  0  0  0  0  0
    9.1435    0.7116   -2.2902 H   0  0  0  0  0  0  0  0  0  0  0  0
    6.7145    1.1459   -2.1238 H   0  0  0  0  0  0  0  0  0  0  0  0
    7.0430   -0.5877   -2.1632 H   0  0  0  0  0  0  0  0  0  0  0  0
    6.5233    1.0529    0.3757 H   0  0  0  0  0  0  0  0  0  0  0  0
    6.8518   -0.6806    0.3364 H   0  0  0  0  0  0  0  0  0  0  0  0
    4.8051   -1.0368   -1.0668 H   0  0  0  0  0  0  0  0  0  0  0  0
    4.4768    0.6970   -1.0276 H   0  0  0  0  0  0  0  0  0  0  0  0
    4.6203   -1.1282    1.4312 H   0  0  0  0  0  0  0  0  0  0  0  0
    4.2905    0.6055    1.4706 H   0  0  0  0  0  0  0  0  0  0  0  0
    2.5730   -1.4873    0.0316 H   0  0  0  0  0  0  0  0  0  0  0  0
    2.2546    0.2492    0.0621 H   0  0  0  0  0  0  0  0  0  0  0  0
    2.0123    0.1821    2.5434 H   0  0  0  0  0  0  0  0  0  0  0  0
    2.4390   -1.5256    2.5531 H   0  0  0  0  0  0  0  0  0  0  0  0
    0.0620   -1.3562    2.7838 H   0  0  0  0  0  0  0  0  0  0  0  0
    0.4063   -2.0658    1.2101 H   0  0  0  0  0  0  0  0  0  0  0  0
   -0.0230    0.1283    0.1046 H   0  0  0  0  0  0  0  0  0  0  0  0
   -0.2610    0.8915    1.6789 H   0  0  0  0  0  0  0  0  0  0  0  0
   -2.2130   -0.6201    2.1075 H   0  0  0  0  0  0  0  0  0  0  0  0
   -1.9626   -1.3898    0.5388 H   0  0  0  0  0  0  0  0  0  0  0  0
   -2.3391    0.8113   -0.6006 H   0  0  0  0  0  0  0  0  0  0  0  0
   -2.5866    1.5809    0.9687 H   0  0  0  0  0  0  0  0  0  0  0  0
   -4.2799   -0.7046   -0.1625 H   0  0  0  0  0  0  0  0  0  0  0  0
   -4.5394    0.0715    1.4022 H   0  0  0  0  0  0  0  0  0  0  0  0
   -4.8525    2.2812    0.2216 H   0  0  0  0  0  0  0  0  0  0  0  0
   -4.6978    1.4609   -1.3282 H   0  0  0  0  0  0  0  0  0  0  0  0
   -6.8565    0.9070    0.7811 H   0  0  0  0  0  0  0  0  0  0  0  0
   -7.0564    1.9094   -0.6461 H   0  0  0  0  0  0  0  0  0  0  0  0
   -6.5521   -0.0917   -2.1025 H   0  0  0  0  0  0  0  0  0  0  0  0
   -6.4975   -1.1048   -0.6337 H   0  0  0  0  0  0  0  0  0  0  0  0
   -9.7509   -1.4102   -1.8713 H   0  0  0  0  0  0  0  0  0  0  0  0
  1  2  1  0
  2  3  1  0
  3  4  1  0
  4  5  1  0
  5  6  1  0
  6  7  1  0
  7  8  1  0
  8  9  1  0
  9 10  1  0
 10 11  1  0
 11 12  1  0
 12 13  1  0
 13 14  1  0
 14 15  1  0
 15 16  1  0
 16 17  2  0
 16 18  1  0
  1 19  1  0
  1 20  1  0
  1 21  1  0
  2 22  1  0
  2 23  1  0
  3 24  1  0
  3 25  1  0
  4 26  1  0
  4 27  1  0
  5 28  1  0
  5 29  1  0
  6 30  1  0
  6 31  1  0
  7 32  1  0
  7 33  1  0
  8 34  1  0
  8 35  1  0
  9 36  1  0
  9 37  1  0
 10 38  1  0
 10 39  1  0
 11 40  1  0
 11 41  1  0
 12 42  1  0
 12 43  1  0
 13 44  1  0
 13 45  1  0
 14 46  1  0
 14 47  1  0
 15 48  1  0
 15 49  1  0
 18 50  1  0
M  END
$$$$
