
     RDKit          3D

 33 33  0  0  0  0  0  0  0  0999 V2000
   -3.0313    1.3304    0.8412 C   0  0  0  0  0  0  0  0  0  0  0  0
   -3.2282    0.1358   -0.0957 C   0  0  0  0  0  0  0  0  0  0  0  0
   -4.6898   -0.3171   -0.0529 C   0  0  0  0  0  0  0  0  0  0  0  0
   -2.3057   -1.0435    0.2698 C   0  0  0  0  0  0  0  0  0  0  0  0
   -0.8385   -0.7611    0.0504 C   0  0  0  0  0  0  0  0  0  0  0  0
    0.0187   -0.5590    1.1377 C   0  0  0  0  0  0  0  0  0  0  0  0
    1.3748   -0.2920    0.9333 C   0  0  0  0  0  0  0  0  0  0  0  0
    1.9040   -0.2233   -0.3638 C   0  0  0  0  0  0  0  0  0  0  0  0
    3.3741    0.0667   -0.6044 C   0  0  0  0  0  0  0  0  0  0  0  0
    4.2750   -1.0235   -0.0199 C   0  0  0  0  0  0  0  0  0  0  0  0
    3.7752    1.4269   -0.0646 C   0  0  0  0  0  0  0  0  0  0  0  0
    4.2244    1.6766    1.0431 O   0  0  0  0  0  0  0  0  0  0  0  0
    3.5729    2.4228   -0.9533 O   0  0  0  0  0  0  0  0  0  0  0  0
    1.0423   -0.4254   -1.4506 C   0  0  0  0  0  0  0  0  0  0  0  0
   -0.3137   -0.6922   -1.2455 C   0  0  0  0  0  0  0  0  0  0  0  0
   -3.7281    2.1378    0.5909 H   0  0  0  0  0  0  0  0  0  0  0  0
   -3.2029    1.0488    1.8857 H   0  0  0  0  0  0  0  0  0  0  0  0
   -2.0187    1.7376    0.7598 H   0  0  0  0  0  0  0  0  0  0  0  0
   -3.0116    0.4671   -1.1192 H   0  0  0  0  0  0  0  0  0  0  0  0
   -5.3596    0.5017   -0.3364 H   0  0  0  0  0  0  0  0  0  0  0  0
   -4.8614   -1.1437   -0.7505 H   0  0  0  0  0  0  0  0  0  0  0  0
   -4.9725   -0.6547    0.9500 H   0  0  0  0  0  0  0  0  0  0  0  0
   -2.5692   -1.9221   -0.3343 H   0  0  0  0  0  0  0  0  0  0  0  0
   -2.4763   -1.3421    1.3126 H   0  0  0  0  0  0  0  0  0  0  0  0
   -0.3636   -0.6024    2.1551 H   0  0  0  0  0  0  0  0  0  0  0  0
    2.0134   -0.1329    1.8008 H   0  0  0  0  0  0  0  0  0  0  0  0
    3.5730    0.0842   -1.6848 H   0  0  0  0  0  0  0  0  0  0  0  0
    4.0251   -2.0046   -0.4386 H   0  0  0  0  0  0  0  0  0  0  0  0
    4.1859   -1.0924    1.0700 H   0  0  0  0  0  0  0  0  0  0  0  0
    5.3269   -0.8158   -0.2460 H   0  0  0  0  0  0  0  0  0  0  0  0
    3.8275    3.2320   -0.4627 H   0  0  0  0  0  0  0  0  0  0  0  0
    1.4182   -0.3749   -2.4703 H   0  0  0  0  0  0  0  0  0  0  0  0
   -0.9601   -0.8458   -2.1068 H   0  0  0  0  0  0  0  0  0  0  0  0
  1  2  1  0
  2  3  1  0
  2  4  1  0
  4  5  1  0
  5  6  2  0
  6  7  1  0
  7  8  2  0
  8  9  1  0
  9 10  1  0
  9 11  1  0
 11 12  2  0
 11 13  1  0
  8 14  1  0
 14 15  2  0
 15  5  1  0
  1 16  1  0
  1 17  1  0
  1 18  1  0
  2 19  1  0
  3 20  1  0
  3 21  1  0
  3 22  1  0
  4 23  1  0
  4 24  1  0
  6 25  1  0
  7 26  1  0
  9 27  1  0
 10 28  1  0
 10 29  1  0
 10 30  1  0
 13 31  1  0
 14 32  1  0
 15 33  1  0
M  END
$$$$
