
     RDKit          3D

 31 33  0  0  0  0  0  0  0  0999 V2000
    2.3352   -1.5007   -0.3067 C   0  0  0  0  0  0  0  0  0  0  0  0
    3.6552   -1.8692   -0.5781 C   0  0  0  0  0  0  0  0  0  0  0  0
    4.6006   -0.8898   -0.8516 C   0  0  0  0  0  0  0  0  0  0  0  0
    4.2480    0.4547   -0.8620 C   0  0  0  0  0  0  0  0  0  0  0  0
    2.9257    0.8211   -0.5909 C   0  0  0  0  0  0  0  0  0  0  0  0
    1.9534   -0.1493   -0.3008 C   0  0  0  0  0  0  0  0  0  0  0  0
    0.5448    0.2147   -0.0355 C   0  0  0  0  0  0  0  0  0  0  0  0
    0.1823    1.1981    0.8092 C   0  0  0  0  0  0  0  0  0  0  0  0
   -1.2613    1.4632    1.0070 C   0  0  0  0  0  0  0  0  0  0  0  0
   -1.6345    2.3505    1.7716 O   0  0  0  0  0  0  0  0  0  0  0  0
   -2.2107    0.6337    0.2635 C   0  0  0  0  0  0  0  0  0  0  0  0
   -3.5931    0.8122    0.3801 C   0  0  0  0  0  0  0  0  0  0  0  0
   -4.4674    0.0036   -0.3422 C   0  0  0  0  0  0  0  0  0  0  0  0
   -3.9467   -0.9809   -1.1780 C   0  0  0  0  0  0  0  0  0  0  0  0
   -2.5722   -1.1664   -1.3003 C   0  0  0  0  0  0  0  0  0  0  0  0
   -1.7018   -0.3537   -0.5748 C   0  0  0  0  0  0  0  0  0  0  0  0
   -0.3586   -0.5807   -0.7316 O   0  0  0  0  0  0  0  0  0  0  0  0
   -4.7620   -1.7970   -1.9047 O   0  0  0  0  0  0  0  0  0  0  0  0
   -4.1578    1.7631    1.1865 O   0  0  0  0  0  0  0  0  0  0  0  0
    1.0692    1.9779    1.5282 O   0  0  0  0  0  0  0  0  0  0  0  0
    5.8769   -1.2924   -1.1101 O   0  0  0  0  0  0  0  0  0  0  0  0
    1.6072   -2.2806   -0.0941 H   0  0  0  0  0  0  0  0  0  0  0  0
    3.9422   -2.9168   -0.5757 H   0  0  0  0  0  0  0  0  0  0  0  0
    4.9780    1.2282   -1.0776 H   0  0  0  0  0  0  0  0  0  0  0  0
    2.6611    1.8763   -0.6087 H   0  0  0  0  0  0  0  0  0  0  0  0
   -5.5376    0.1544   -0.2411 H   0  0  0  0  0  0  0  0  0  0  0  0
   -2.1848   -1.9398   -1.9581 H   0  0  0  0  0  0  0  0  0  0  0  0
   -5.6876   -1.5588   -1.7259 H   0  0  0  0  0  0  0  0  0  0  0  0
   -3.4372    2.2569    1.6379 H   0  0  0  0  0  0  0  0  0  0  0  0
    0.5105    2.5729    2.0712 H   0  0  0  0  0  0  0  0  0  0  0  0
    6.4231   -0.5053   -1.2693 H   0  0  0  0  0  0  0  0  0  0  0  0
  1  2  2  0
  2  3  1  0
  3  4  2  0
  4  5  1  0
  5  6  2  0
  6  7  1  0
  7  8  2  0
  8  9  1  0
  9 10  2  0
  9 11  1  0
 11 12  2  0
 12 13  1  0
 13 14  2  0
 14 15  1  0
 15 16  2  0
 16 17  1  0
 14 18  1  0
 12 19  1  0
  8 20  1  0
  3 21  1  0
  6  1  1  0
 17  7  1  0
 16 11  1  0
  1 22  1  0
  2 23  1  0
  4 24  1  0
  5 25  1  0
 13 26  1  0
 15 27  1  0
 18 28  1  0
 19 29  1  0
 20 30  1  0
 21 31  1  0
M  END
$$$$
