
     RDKit          3D

 20 20  0  0  0  0  0  0  0  0999 V2000
   -1.4673   -0.7869   -0.0534 C   0  0  0  0  0  0  0  0  0  0  0  0
   -2.6297   -0.0859   -0.3890 C   0  0  0  0  0  0  0  0  0  0  0  0
   -2.5305    1.2273   -0.8333 C   0  0  0  0  0  0  0  0  0  0  0  0
   -1.2922    1.8450   -0.9509 C   0  0  0  0  0  0  0  0  0  0  0  0
   -0.1316    1.1431   -0.6147 C   0  0  0  0  0  0  0  0  0  0  0  0
   -0.2079   -0.1768   -0.1491 C   0  0  0  0  0  0  0  0  0  0  0  0
    0.9854   -0.9640    0.1896 C   0  0  0  0  0  0  0  0  0  0  0  0
    2.0893   -0.4510    0.7532 C   0  0  0  0  0  0  0  0  0  0  0  0
    3.2219   -1.3315    1.0645 C   0  0  0  0  0  0  0  0  0  0  0  0
    3.3016   -2.5307    0.8825 O   0  0  0  0  0  0  0  0  0  0  0  0
    4.2234   -0.6201    1.6055 O   0  0  0  0  0  0  0  0  0  0  0  0
   -3.6357    1.9492   -1.1724 O   0  0  0  0  0  0  0  0  0  0  0  0
   -1.5551   -1.8150    0.2923 H   0  0  0  0  0  0  0  0  0  0  0  0
   -3.5918   -0.5799   -0.2986 H   0  0  0  0  0  0  0  0  0  0  0  0
   -1.2277    2.8686   -1.3091 H   0  0  0  0  0  0  0  0  0  0  0  0
    0.8278    1.6397   -0.7345 H   0  0  0  0  0  0  0  0  0  0  0  0
    0.9278   -2.0305   -0.0243 H   0  0  0  0  0  0  0  0  0  0  0  0
    2.1936    0.5950    1.0112 H   0  0  0  0  0  0  0  0  0  0  0  0
    4.9199   -1.2884    1.7740 H   0  0  0  0  0  0  0  0  0  0  0  0
   -4.4212    1.3929   -1.0436 H   0  0  0  0  0  0  0  0  0  0  0  0
  1  2  2  0
  2  3  1  0
  3  4  2  0
  4  5  1  0
  5  6  2  0
  6  7  1  0
  7  8  2  0
  8  9  1  0
  9 10  2  0
  9 11  1  0
  3 12  1  0
  6  1  1  0
  1 13  1  0
  2 14  1  0
  4 15  1  0
  5 16  1  0
  7 17  1  0
  8 18  1  0
 11 19  1  0
 12 20  1  0
M  END
$$$$
