
     RDKit          3D

 32 34  0  0  0  0  0  0  0  0999 V2000
    2.2100    1.4960    0.3113 C   0  0  0  0  0  0  0  0  0  0  0  0
    3.5394    1.8932    0.1424 C   0  0  0  0  0  0  0  0  0  0  0  0
    4.4657    0.9718   -0.3168 C   0  0  0  0  0  0  0  0  0  0  0  0
    4.0840   -0.3337   -0.6099 C   0  0  0  0  0  0  0  0  0  0  0  0
    2.7613   -0.7362   -0.4484 C   0  0  0  0  0  0  0  0  0  0  0  0
    1.8049    0.1776    0.0264 C   0  0  0  0  0  0  0  0  0  0  0  0
    0.3839   -0.2015    0.1929 C   0  0  0  0  0  0  0  0  0  0  0  0
   -0.0127   -1.3414    0.7890 C   0  0  0  0  0  0  0  0  0  0  0  0
   -1.4646   -1.6054    0.9158 C   0  0  0  0  0  0  0  0  0  0  0  0
   -1.8664   -2.6333    1.4569 O   0  0  0  0  0  0  0  0  0  0  0  0
   -2.3850   -0.6033    0.3769 C   0  0  0  0  0  0  0  0  0  0  0  0
   -3.7726   -0.7661    0.4445 C   0  0  0  0  0  0  0  0  0  0  0  0
   -4.6186    0.2088   -0.0788 C   0  0  0  0  0  0  0  0  0  0  0  0
   -4.0645    1.3427   -0.6670 C   0  0  0  0  0  0  0  0  0  0  0  0
   -2.6845    1.5137   -0.7386 C   0  0  0  0  0  0  0  0  0  0  0  0
   -1.8426    0.5343   -0.2131 C   0  0  0  0  0  0  0  0  0  0  0  0
   -0.4924    0.7543   -0.3089 O   0  0  0  0  0  0  0  0  0  0  0  0
   -4.8511    2.3243   -1.1927 O   0  0  0  0  0  0  0  0  0  0  0  0
   -4.3695   -1.8595    1.0114 O   0  0  0  0  0  0  0  0  0  0  0  0
    0.8466   -2.2894    1.3142 O   0  0  0  0  0  0  0  0  0  0  0  0
    5.0503   -1.1921   -1.0591 O   0  0  0  0  0  0  0  0  0  0  0  0
    5.7648    1.3565   -0.4820 O   0  0  0  0  0  0  0  0  0  0  0  0
    1.4899    2.2272    0.6737 H   0  0  0  0  0  0  0  0  0  0  0  0
    3.8459    2.9101    0.3672 H   0  0  0  0  0  0  0  0  0  0  0  0
    2.4664   -1.7529   -0.6896 H   0  0  0  0  0  0  0  0  0  0  0  0
   -5.6934    0.0682   -0.0189 H   0  0  0  0  0  0  0  0  0  0  0  0
   -2.2712    2.4056   -1.2020 H   0  0  0  0  0  0  0  0  0  0  0  0
   -5.7845    2.0782   -1.0754 H   0  0  0  0  0  0  0  0  0  0  0  0
   -3.6671   -2.4623    1.3428 H   0  0  0  0  0  0  0  0  0  0  0  0
    0.2660   -2.9695    1.7168 H   0  0  0  0  0  0  0  0  0  0  0  0
    4.6440   -2.0688   -1.1730 H   0  0  0  0  0  0  0  0  0  0  0  0
    6.2175    0.5531   -0.8078 H   0  0  0  0  0  0  0  0  0  0  0  0
  1  2  2  0
  2  3  1  0
  3  4  2  0
  4  5  1  0
  5  6  2  0
  6  7  1  0
  7  8  2  0
  8  9  1  0
  9 10  2  0
  9 11  1  0
 11 12  2  0
 12 13  1  0
 13 14  2  0
 14 15  1  0
 15 16  2  0
 16 17  1  0
 14 18  1  0
 12 19  1  0
  8 20  1  0
  4 21  1  0
  3 22  1  0
  6  1  1  0
 17  7  1  0
 16 11  1  0
  1 23  1  0
  2 24  1  0
  5 25  1  0
 13 26  1  0
 15 27  1  0
 18 28  1  0
 19 29  1  0
 20 30  1  0
 21 31  1  0
 22 32  1  0
M  END
$$$$
